&HEAD CHID='TEST', TITLE='Template Test 02'  /

&MESH ID='MESH01', IJK=4,4,4, XB=-0.15,0.15,-0.15,0.15,0.0,0.4/

&TIME T_END=2.7 /

&DEVC ID='VELO', QUANTITY='VELOCITY', XYZ=0,0,0/
&DEVC ID='TEMP', QUANTITY='TEMPERATURE', XYZ=0,0,0/

&TAIL /
