&HEAD CHID='TEST', TITLE='Template Test 02'  /

&MESH ID='MESH01', IJK=4,4,4, XB=-0.2,0.2, -0.2,0.2, -0.2,0.2 /

&MISC TMPA=#TMPA# /

$TIME T_END=10.0 /

&DEVC ID='VELO', QUANTITY='VELOCITY', XYZ=0,0,0 /
&DEVC ID='TEMP', QUANTITY='TEMPERATURE', XYZ=0,0,0 /

&TAIL /
